

empty_htapes = .true.

nhtfrq = 0, -24, -24, -24, -24, -24, -24, -24, -24, -24
mfilt = 1, 365, 365, 365, 365, 365, 365, 365, 365, 365
fincl2 = 'PRECC', 'PRECL', 'PSL', 'TREFHT', 'TREFHTMN', 'TREFHTMX', 'RHREFHT', 'QREFHT', 'PS', 'Z500', 'SST', 'ICEFRAC'
fincl3 = 'SHFLX', 'LHFLX', 'FSDS', 'FSNS', 'FLDS', 'FLNS'
fincl4 = 'U:A', 'V:A'
